2024_89_CemigReconfigurationCases/1_AlimsCemig/NOG03/NOG03SegmentosMT.dss
new line.TR10040549 bus1=BMT6053644B.1.2.3,bus2=BMT101960917.1.2.3,Phases=3,Linecode=CAB108_3_3,Length=0.043427000,Units=km
new line.TR10040556 bus1=BMT150341588.1.2.3,bus2=BMT150341589.1.2.3,Phases=3,Linecode=CAB611_3_3,Length=0.005002000,Units=km
new line.TR10040563 bus1=BMT101960959.1.2.3,bus2=BMT101960966.1.2.3,Phases=3,Linecode=CAB108_3_3,Length=0.007813000,Units=km
new line.TR10040605 bus1=BMT150341589.1.2.3,bus2=BMT150341590.1.2.3,Phases=3,Linecode=CAB611_3_3,Length=0.015625000,Units=km
new line.TR10040612 bus1=BMT150341590.1.2.3,bus2=BMT150341591.1.2.3,Phases=3,Linecode=CAB611_3_3,Length=0.005002000,Units=km
new line.TR11640707 bus1=BMT861001B.1.2.3,bus2=BMT163941697.1.2.3,Phases=3,Linecode=CAB108_3_3,Length=0.013932000,Units=km
new line.TR11640714 bus1=BMT163941697.1.2.3,bus2=BMT163941698.1.2.3,Phases=3,Linecode=CAB108_3_3,Length=0.012533000,Units=km
new line.TR11640735 bus1=BMT163941697.1.2.3,bus2=BMT163941699.1.2.3,Phases=3,Linecode=CABA06_3_3,Length=0.032211000,Units=km
new line.TR11790850 bus1=BMT101960595.1.2.3,bus2=BMT169267447.1.2.3,Phases=3,Linecode=CAB108_3_3,Length=0.017267000,Units=km
new line.TR11790857 bus1=BMT169267446.1.2.3,bus2=BMT169267447.1.2.3,Phases=3,Linecode=CAB108_3_3,Length=0.012086000,Units=km
new line.TR1250103 bus1=BMT832203B.1.2.3,bus2=BMT158766152.1.2.3,Phases=3,Linecode=CAB102_3_3,Length=0.015816000,Units=km
new line.TR1250117 bus1=BMT832210B.1.2.3,bus2=BMT850655B.1.2.3,Phases=3,Linecode=CAB103_3_3,Length=0.029689000,Units=km
new line.TR1250131 bus1=BMT832217B.1.2.3,bus2=BMT832203B.1.2.3,Phases=3,Linecode=CAB102_3_3,Length=0.032458000,Units=km
new line.TR1250145 bus1=BMT832224B.1.2.3,bus2=BMT832217B.1.2.3,Phases=3,Linecode=CAB102_3_3,Length=0.027466000,Units=km
new line.TR1250159 bus1=BMT158766151.1.2.3,bus2=BMT832224B.1.2.3,Phases=3,Linecode=CAB102_3_3,Length=0.031073000,Units=km
new line.TR12572395 bus1=BMT858250B.1.2.3,bus2=BMT166799704.1.2.3,Phases=3,Linecode=CAB108_3_3,Length=0.015269000,Units=km
new line.TR1260120 bus1=BMT150341571.1.2.3,bus2=BMT150341572.1.2.3,Phases=3,Linecode=CAB610_5_3,Length=0.010820000,Units=km
new line.TR1263606 bus1=BMT840722B.1.2.3,bus2=BMT873944B.1.2.3,Phases=3,Linecode=CABA06_3_3,Length=0.027026000,Units=km
new line.TR1269542 bus1=BMT845475B.1.2.3,bus2=BMT845482B.1.2.3,Phases=3,Linecode=CAB108_3_3,Length=0.024846000,Units=km
new line.TR1269598 bus1=BMT151668954.1.2.3,bus2=BMT845510B.1.2.3,Phases=3,Linecode=CAB103_3_3,Length=0.028608000,Units=km
new line.TR1269619 bus1=BMT101958201.1.2.3,bus2=BMT101958194.1.2.3,Phases=3,Linecode=CAB108_3_3,Length=0.027666000,Units=km
new line.TR1269626 bus1=BMT101958201.1.2.3,bus2=BMT101958208.1.2.3,Phases=3,Linecode=CAB108_3_3,Length=0.022633000,Units=km
new line.TR1269640 bus1=BMT845510B.1.2.3,bus2=BMT852727B.1.2.3,Phases=3,Linecode=CAB103_3_3,Length=0.030814000,Units=km
new line.TR1269647 bus1=BMT845531B.1.2.3,bus2=BMT101957977.1.2.3,Phases=3,Linecode=CAB108_3_3,Length=0.005659000,Units=km
new line.TR1278894 bus1=BMT851005B.1.2.3,bus2=BMT851012B.1.2.3,Phases=3,Linecode=CAB102_3_3,Length=0.034141000,Units=km
new line.TR1278908 bus1=BMT851012B.1.2.3,bus2=BMT851019B.1.2.3,Phases=3,Linecode=CAB102_3_3,Length=0.034491000,Units=km
new line.TR1278922 bus1=BMT851019B.1.2.3,bus2=BMT101958677.1.2.3,Phases=3,Linecode=CAB102_3_3,Length=0.031631000,Units=km
new line.TR1293811 bus1=BMT859734B.1.2.3,bus2=BMT859748B.1.2.3,Phases=3,Linecode=CAB103_3_3,Length=0.034418000,Units=km
new line.TR1293825 bus1=BMT859748B.1.2.3,bus2=BMT859755B.1.2.3,Phases=3,Linecode=CAB103_3_3,Length=0.036065000,Units=km
new line.TR1293832 bus1=BMT859755B.1.2.3,bus2=BMT859762B.1.2.3,Phases=3,Linecode=CAB103_3_3,Length=0.030537000,Units=km
new line.TR1293839 bus1=BMT859762B.1.2.3,bus2=BMT150685000.1.2.3,Phases=3,Linecode=CAB103_3_3,Length=0.031393000,Units=km
new line.TR1294007 bus1=BMT859902B.1.2.3,bus2=BMT859895B.1.2.3,Phases=3,Linecode=CAB108_3_3,Length=0.028643000,Units=km
new line.TR1294021 bus1=BMT169274005.1.2.3,bus2=BMT169274006.1.2.3,Phases=3,Linecode=CAB108_3_3,Length=0.005101000,Units=km
new line.TR1294028 bus1=BMT169274005.1.2.3,bus2=BMT169274007.1.2.3,Phases=3,Linecode=CAB108_3_3,Length=0.017267000,Units=km
new line.TR1294035 bus1=BMT169274005.1.2.3,bus2=BMT859902B.1.2.3,Phases=3,Linecode=CAB108_3_3,Length=0.005387000,Units=km
new line.TR1294049 bus1=BMT167679218.1.2.3,bus2=BMT858649B.1.2.3,Phases=3,Linecode=CAB108_3_3,Length=0.034937000,Units=km
new line.TR1294210 bus1=BMT860035B.1.2.3,bus2=BMT860042B.1.2.3,Phases=3,Linecode=CAB103_3_3,Length=0.029537000,Units=km
new line.TR1294224 bus1=BMT860042B.1.2.3,bus2=BMT860056B.1.2.3,Phases=3,Linecode=CAB103_3_3,Length=0.034995000,Units=km
new line.TR1294238 bus1=BMT860056B.1.2.3,bus2=BMT150684643.1.2.3,Phases=3,Linecode=CAB103_3_3,Length=0.028661000,Units=km
new line.TR1294252 bus1=BMT860105B.1.2.3,bus2=BMT101959160.1.2.3,Phases=3,Linecode=CAB103_3_3,Length=0.036779000,Units=km
new line.TR1294392 bus1=BMT860196B.1.2.3,bus2=BMT150685001.1.2.3,Phases=3,Linecode=CAB907_4_3,Length=0.041736000,Units=km
new line.TR1294413 bus1=BMT150685002.1.2.3,bus2=BMT860196B.1.2.3,Phases=3,Linecode=CAB907_4_3,Length=0.023351000,Units=km
new line.TR1294441 bus1=BMT860224B.1.2.3,bus2=BMT150685002.1.2.3,Phases=3,Linecode=CAB108_3_3,Length=0.024765000,Units=km
new line.TR1294448 bus1=BMT860224B.1.2.3,bus2=BMT150685003.1.2.3,Phases=3,Linecode=CAB108_3_3,Length=0.005833000,Units=km
new line.TR1294483 bus1=BMT150685004.1.2.3,bus2=BMT860245B.1.2.3,Phases=3,Linecode=CAB108_3_3,Length=0.021938000,Units=km
new line.TR1294504 bus1=BMT860245B.1.2.3,bus2=BMT860252B.1.2.3,Phases=3,Linecode=CAB108_3_3,Length=0.020524000,Units=km
new line.TR1294525 bus1=BMT860252B.1.2.3,bus2=BMT860266B.1.2.3,Phases=3,Linecode=CAB108_3_3,Length=0.031121000,Units=km
new line.TR1294553 bus1=BMT860266B.1.2.3,bus2=BMT858838B.1.2.3,Phases=3,Linecode=CAB108_3_3,Length=0.027593000,Units=km
new line.TR1294588 bus1=BMT860294B.1.2.3,bus2=BMT151159965.1.2.3,Phases=3,Linecode=CABA06_3_3,Length=0.033145000,Units=km
new line.TR1294595 bus1=BMT860301B.1.2.3,bus2=BMT860294B.1.2.3,Phases=3,Linecode=CABA06_3_3,Length=0.034141000,Units=km
new line.TR1294602 bus1=BMT151159964.1.2.3,bus2=BMT860301B.1.2.3,Phases=3,Linecode=CABA06_3_3,Length=0.038062000,Units=km
new line.TR1294623 bus1=BMT128549087.1.2.3,bus2=BMT860644B.1.2.3,Phases=3,Linecode=CAB103_3_3,Length=0.028608000,Units=km
new line.TR1294637 bus1=BMT860336B.1.2.3,bus2=BMT128549080.1.2.3,Phases=3,Linecode=CAB108_3_3,Length=0.016283000,Units=km
new line.TR1294665 bus1=BMT128549073.1.2.3,bus2=BMT860336B.1.2.3,Phases=3,Linecode=CAB108_3_3,Length=0.027593000,Units=km
new line.TR1294686 bus1=BMT860357B.1.2.3,bus2=BMT128549073.1.2.3,Phases=3,Linecode=CAB108_3_3,Length=0.026914000,Units=km
new line.TR1294721 bus1=BMT860378B.1.2.3,bus2=BMT860357B.1.2.3,Phases=3,Linecode=CAB108_3_3,Length=0.023437000,Units=km
new line.TR1294728 bus1=BMT860385B.1.2.3,bus2=BMT860378B.1.2.3,Phases=3,Linecode=CAB108_3_3,Length=0.026914000,Units=km
new line.TR1294777 bus1=BMT169267446.1.2.3,bus2=BMT858726B.1.2.3,Phases=3,Linecode=CAB108_3_3,Length=0.025502000,Units=km
new line.TR1294784 bus1=BMT169267446.1.2.3,bus2=BMT101960581.1.2.3,Phases=3,Linecode=CAB108_3_3,Length=0.032319000,Units=km
new line.TR1294798 bus1=BMT101960574.1.2.3,bus2=BMT101960560.1.2.3,Phases=3,Linecode=CAB108_3_3,Length=0.035350000,Units=km
new line.TR1294812 bus1=BMT101960546.1.2.3,bus2=BMT860490B.1.2.3,Phases=3,Linecode=CAB108_3_3,Length=0.028643000,Units=km
new line.TR1294826 bus1=BMT860483B.1.2.3,bus2=BMT101960560.1.2.3,Phases=3,Linecode=CAB108_3_3,Length=0.034023000,Units=km
new line.TR1294840 bus1=BMT860490B.1.2.3,bus2=BMT101960553.1.2.3,Phases=3,Linecode=CAB108_3_3,Length=0.006710000,Units=km
new line.TR1294854 bus1=BMT101960553.1.2.3,bus2=BMT860483B.1.2.3,Phases=3,Linecode=CAB108_3_3,Length=0.006327000,Units=km
new line.TR1294861 bus1=BMT101960553.1.2.3,bus2=BMT860504B.1.2.3,Phases=3,Linecode=CAB108_3_3,Length=0.008947000,Units=km
new line.TR1294868 bus1=BMT101960553.1.2.3,bus2=BMT860511B.1.2.3,Phases=3,Linecode=CAB108_3_3,Length=0.032704000,Units=km
new line.TR1294875 bus1=BMT860511B.1.2.3,bus2=BMT101960567.1.2.3,Phases=3,Linecode=CAB108_3_3,Length=0.024603000,Units=km
new line.TR1294889 bus1=BMT860532B.1.2.3,bus2=BMT101958607.1.2.3,Phases=3,Linecode=CAB103_3_3,Length=0.032024000,Units=km
new line.TR1294903 bus1=BMT860539B.1.2.3,bus2=BMT860532B.1.2.3,Phases=3,Linecode=CAB103_3_3,Length=0.036806000,Units=km
new line.TR1294910 bus1=BMT860560B.1.2.3,bus2=BMT101958579.1.2.3,Phases=3,Linecode=CAB103_3_3,Length=0.031836000,Units=km
new line.TR1294938 bus1=BMT860588B.1.2.3,bus2=BMT151159964.1.2.3,Phases=3,Linecode=CAB103_3_3,Length=0.040060000,Units=km
new line.TR1294945 bus1=BMT151159962.1.2.3,bus2=BMT860588B.1.2.3,Phases=3,Linecode=CAB103_3_3,Length=0.034068000,Units=km
new line.TR1294952 bus1=BMT860602B.1.2.3,bus2=BMT151159962.1.2.3,Phases=3,Linecode=CAB103_3_3,Length=0.038062000,Units=km
new line.TR1294959 bus1=BMT860609B.1.2.3,bus2=BMT860602B.1.2.3,Phases=3,Linecode=CAB103_3_3,Length=0.036065000,Units=km
new line.TR1294966 bus1=BMT860616B.1.2.3,bus2=BMT860609B.1.2.3,Phases=3,Linecode=CAB103_3_3,Length=0.031073000,Units=km
new line.TR1294973 bus1=BMT860623B.1.2.3,bus2=BMT860616B.1.2.3,Phases=3,Linecode=CAB103_3_3,Length=0.034024000,Units=km
new line.TR1294980 bus1=BMT151159956.1.2.3,bus2=BMT851782B.1.2.3,Phases=3,Linecode=CAB103_3_3,Length=0.036134000,Units=km
new line.TR1294987 bus1=BMT151159956.1.2.3,bus2=BMT860623B.1.2.3,Phases=3,Linecode=CAB103_3_3,Length=0.034141000,Units=km
new line.TR1294994 bus1=BMT151159956.1.2.3,bus2=BMT860700B.1.2.3,Phases=3,Linecode=CAB103_3_3,Length=0.036065000,Units=km
new line.TR1295015 bus1=BMT860644B.1.2.3,bus2=BMT860651B.1.2.3,Phases=3,Linecode=CAB103_3_3,Length=0.030814000,Units=km
new line.TR1295029 bus1=BMT860651B.1.2.3,bus2=BMT128549094.1.2.3,Phases=3,Linecode=CAB103_3_3,Length=0.027810000,Units=km
new line.TR1295050 bus1=BMT860665B.1.2.3,bus2=BMT860560B.1.2.3,Phases=3,Linecode=CAB103_3_3,Length=0.032024000,Units=km
new line.TR1295078 bus1=BMT860679B.1.2.3,bus2=BMT860665B.1.2.3,Phases=3,Linecode=CAB103_3_3,Length=0.039633000,Units=km
new line.TR1295106 bus1=BMT860700B.1.2.3,bus2=BMT860707B.1.2.3,Phases=3,Linecode=CAB103_3_3,Length=0.037023000,Units=km
new line.TR1295127 bus1=BMT860707B.1.2.3,bus2=BMT151159963.1.2.3,Phases=3,Linecode=CAB103_3_3,Length=0.037064000,Units=km
new line.TR1295176 bus1=BMT860749B.1.2.3,bus2=BMT151159956.1.2.3,Phases=3,Linecode=CAB103_3_3,Length=0.037023000,Units=km
new line.TR1295225 bus1=BMT101957746.1.2.3,bus2=BMT2704262B.1.2.3,Phases=3,Linecode=CAB108_3_3,Length=0.032008000,Units=km
new line.TR1295232 bus1=BMT101961512.1.2.3,bus2=BMT101961519.1.2.3,Phases=3,Linecode=CAB902_4_3,Length=0.012045000,Units=km
new line.TR1295267 bus1=BMT860791B.1.2.3,bus2=BMT862156B.1.2.3,Phases=3,Linecode=CAB103_3_3,Length=0.032071000,Units=km
new line.TR1295274 bus1=BMT860798B.1.2.3,bus2=BMT860791B.1.2.3,Phases=3,Linecode=CAB103_3_3,Length=0.008065000,Units=km
new line.TR1295463 bus1=BMT860903B.1.2.3,bus2=BMT858810B.1.2.3,Phases=3,Linecode=CAB108_3_3,Length=0.025086000,Units=km
new line.TR1295470 bus1=BMT860917B.1.2.3,bus2=BMT860903B.1.2.3,Phases=3,Linecode=CAB108_3_3,Length=0.032658000,Units=km
new line.TR1295477 bus1=BMT860924B.1.2.3,bus2=BMT860917B.1.2.3,Phases=3,Linecode=CAB108_3_3,Length=0.010633000,Units=km
new line.TR1295484 bus1=BMT169267441.1.2.3,bus2=BMT860924B.1.2.3,Phases=3,Linecode=CAB108_3_3,Length=0.016975000,Units=km
new line.TR1295491 bus1=BMT860938B.1.2.3,bus2=BMT169267441.1.2.3,Phases=3,Linecode=CAB108_3_3,Length=0.028327000,Units=km
new line.TR1295505 bus1=BMT101960777.1.2.3,bus2=BMT860938B.1.2.3,Phases=3,Linecode=CAB108_3_3,Length=0.028292000,Units=km
new line.TR1295512 bus1=BMT101960826.1.2.3,bus2=BMT101960833.1.2.3,Phases=3,Linecode=CAB108_3_3,Length=0.009222000,Units=km
new line.TR1295519 bus1=BMT860959B.1.2.3,bus2=BMT101960777.1.2.3,Phases=3,Linecode=CAB108_3_3,Length=0.031121000,Units=km
new line.TR1295533 bus1=BMT860966B.1.2.3,bus2=BMT860959B.1.2.3,Phases=3,Linecode=CAB108_3_3,Length=0.038959000,Units=km
new line.TR1295554 bus1=BMT163941696.1.2.3,bus2=BMT154605624.1.2.3,Phases=3,Linecode=CAB108_3_3,Length=0.022478000,Units=km
new line.TR1295568 bus1=BMT101960651.1.2.3,bus2=BMT861001B.1.2.3,Phases=3,Linecode=CAB108_3_3,Length=0.032211000,Units=km
new line.TR1295575 bus1=BMT101961078.1.2.3,bus2=BMT101961085.1.2.3,Phases=3,Linecode=CAB902_4_3,Length=0.016004000,Units=km
new line.TR1295582 bus1=BMT101960651.1.2.3,bus2=BMT154605624.1.2.3,Phases=3,Linecode=CAB108_3_3,Length=0.007813000,Units=km
new line.TR1295610 bus1=BMT163941698.1.2.3,bus2=BMT101960665.1.2.3,Phases=3,Linecode=CAB108_3_3,Length=0.036684000,Units=km
new line.TR1295638 bus1=BMT101960665.1.2.3,bus2=BMT861029B.1.2.3,Phases=3,Linecode=CAB108_3_3,Length=0.030879000,Units=km
new line.TR1295645 bus1=BMT150341592.1.2.3,bus2=BMT150341593.1.2.3,Phases=3,Linecode=CAB608_3_3,Length=0.030008000,Units=km
new line.TR1295659 bus1=BMT861029B.1.2.3,bus2=BMT101960672.1.2.3,Phases=3,Linecode=CAB108_3_3,Length=0.029076000,Units=km
new line.TR1295680 bus1=BMT861036B.1.2.3,bus2=BMT163941700.1.2.3,Phases=3,Linecode=CAB103_3_3,Length=0.016129000,Units=km
new line.TR1295701 bus1=BMT101960672.1.2.3,bus2=BMT861036B.1.2.3,Phases=3,Linecode=CAB103_3_3,Length=0.008547000,Units=km
new line.TR1295708 bus1=BMT101961050.1.2.3,bus2=BMT101961057.1.2.3,Phases=3,Linecode=CAB103_3_3,Length=0.014217000,Units=km
new line.TR1295715 bus1=BMT101960672.1.2.3,bus2=BMT861071B.1.2.3,Phases=3,Linecode=CAB108_3_3,Length=0.034549000,Units=km
new line.TR11452274 bus1=BMT148952431.1.2.3,bus2=BMT886110B.1.2.3,Phases=3,Linecode=CABA06_3_3,Length=0.025502000,Units=km
new line.TR11452281 bus1=BMT886110B.1.2.3,bus2=BMT887692B.1.2.3,Phases=3,Linecode=CABA06_3_3,Length=0.025007000,Units=km
new line.TR11452288 bus1=BMT887692B.1.2.3,bus2=BMT887699B.1.2.3,Phases=3,Linecode=CABA06_3_3,Length=0.031249000,Units=km
new line.TR11452295 bus1=BMT887699B.1.2.3,bus2=BMT888658B.1.2.3,Phases=3,Linecode=CABA06_3_3,Length=0.033979000,Units=km
new line.TR11452302 bus1=BMT888658B.1.2.3,bus2=BMT888665B.1.2.3,Phases=3,Linecode=CABA06_3_3,Length=0.039633000,Units=km
new line.TR11452309 bus1=BMT888665B.1.2.3,bus2=BMT888672B.1.2.3,Phases=3,Linecode=CABA06_3_3,Length=0.031836000,Units=km
new line.TR11452316 bus1=BMT888672B.1.2.3,bus2=BMT888679B.1.2.3,Phases=3,Linecode=CABA06_3_3,Length=0.037546000,Units=km
new line.TR11452323 bus1=BMT888679B.1.2.3,bus2=BMT148952430.1.2.3,Phases=3,Linecode=CABA06_3_3,Length=0.036806000,Units=km
new line.TR12109664 bus1=BMT148098677.1.2.3,bus2=BMT148098678.1.2.3,Phases=3,Linecode=CAB902_4_3,Length=0.019005000,Units=km
new line.TR1265860 bus1=BMT842612B.1.2.3,bus2=BMT150685737.1.2.3,Phases=3,Linecode=CAB102_3_3,Length=0.033130000,Units=km
new line.TR1265874 bus1=BMT150685735.1.2.3,bus2=BMT150685736.1.2.3,Phases=3,Linecode=CAB102_3_3,Length=0.032765000,Units=km
new line.TR1265881 bus1=BMT150685735.1.2.3,bus2=BMT842612B.1.2.3,Phases=3,Linecode=CAB102_3_3,Length=0.034418000,Units=km
new line.TR1272440 bus1=BMT847239B.1,bus2=BMT844299B.1,Phases=1,Linecode=CAB002_3_1,Length=0.026084000,Units=km
new line.TR1272496 bus1=BMT847267B.1.2.3,bus2=BMT101958215.1.2.3,Phases=3,Linecode=CAB108_3_3,Length=0.026914000,Units=km
new line.TR1272503 bus1=BMT847267B.1.2.3,bus2=BMT3305758B.1.2.3,Phases=3,Linecode=CAB108_3_3,Length=0.012732000,Units=km
new line.TR1272531 bus1=BMT101958215.1.2.3,bus2=BMT847295B.1.2.3,Phases=3,Linecode=CAB108_3_3,Length=0.023437000,Units=km
new line.TR1272601 bus1=BMT847323B.1.2.3,bus2=BMT845475B.1.2.3,Phases=3,Linecode=CAB108_3_3,Length=0.023437000,Units=km
new line.TR1272608 bus1=BMT847323B.1.2.3,bus2=BMT847295B.1.2.3,Phases=3,Linecode=CAB108_3_3,Length=0.026877000,Units=km
new line.TR1278859 bus1=BMT850991B.1.2.3,bus2=BMT850998B.1.2.3,Phases=3,Linecode=CAB102_3_3,Length=0.034141000,Units=km
new line.TR1278873 bus1=BMT850998B.1.2.3,bus2=BMT851005B.1.2.3,Phases=3,Linecode=CAB102_3_3,Length=0.031914000,Units=km
new line.TR1288211 bus1=BMT856283B.1.2.3,bus2=BMT173211890.1.2.3,Phases=3,Linecode=CAB108_3_3,Length=0.030537000,Units=km
new line.TR1288225 bus1=BMT173211892.2,bus2=BMT173211893.2,Phases=1,Linecode=CAB103_3_1,Length=0.041411000,Units=km
new line.TR1289086 bus1=BMT856920B.1.2.3,bus2=BMT856927B.1.2.3,Phases=3,Linecode=CAB108_3_3,Length=0.026084000,Units=km
new line.TR1289100 bus1=BMT856927B.1.2.3,bus2=BMT856934B.1.2.3,Phases=3,Linecode=CAB108_3_3,Length=0.030537000,Units=km
new line.TR1289107 bus1=BMT856934B.1.2.3,bus2=BMT150793364.1.2.3,Phases=3,Linecode=CAB108_3_3,Length=0.031914000,Units=km
new line.TR1289121 bus1=BMT856941B.1.2.3,bus2=BMT150793367.1.2.3,Phases=3,Linecode=CAB103_3_3,Length=0.033024000,Units=km
new line.TR1289128 bus1=BMT150793364.1.2.3,bus2=BMT150793365.1.2.3,Phases=3,Linecode=CAB108_3_3,Length=0.015004000,Units=km
new line.TR1289156 bus1=BMT856955B.1.2.3,bus2=BMT856941B.1.2.3,Phases=3,Linecode=CAB103_3_3,Length=0.035520000,Units=km
new line.TR1289170 bus1=BMT150793365.1.2.3,bus2=BMT101957809.1.2.3,Phases=3,Linecode=CAB902_4_3,Length=0.000501000,Units=km
new line.TR1289177 bus1=BMT150793365.1.2.3,bus2=BMT150793366.1.2.3,Phases=3,Linecode=CAB108_3_3,Length=0.010773000,Units=km
new line.TR1289184 bus1=BMT101957837.1.2.3,bus2=BMT101957844.1.2.3,Phases=3,Linecode=CAB902_4_3,Length=0.022478000,Units=km
new line.TR1289198 bus1=BMT150793366.1.2.3,bus2=BMT856955B.1.2.3,Phases=3,Linecode=CAB103_3_3,Length=0.035520000,Units=km
new line.TR1289205 bus1=BMT150793366.1.2.3,bus2=BMT861939B.1.2.3,Phases=3,Linecode=CAB108_3_3,Length=0.031631000,Units=km
new line.TR1290052 bus1=BMT857494B.1.2.3,bus2=BMT101959118.1.2.3,Phases=3,Linecode=CAB103_3_3,Length=0.026408000,Units=km
new line.TR1290059 bus1=BMT101959111.1.2.3,bus2=BMT857494B.1.2.3,Phases=3,Linecode=CAB103_3_3,Length=0.036684000,Units=km
new line.TR1290073 bus1=BMT101959104.1.2.3,bus2=BMT101959111.1.2.3,Phases=3,Linecode=CAB103_3_3,Length=0.036065000,Units=km
new line.TR1290094 bus1=BMT169274006.1.2.3,bus2=BMT101958971.1.2.3,Phases=3,Linecode=CAB108_3_3,Length=0.033024000,Units=km
new line.TR1290101 bus1=BMT857522B.1.2.3,bus2=BMT101961288.1.2.3,Phases=3,Linecode=CAB103_3_3,Length=0.031393000,Units=km
new line.TR1290115 bus1=BMT101961358.1.2.3,bus2=BMT857536B.1.2.3,Phases=3,Linecode=CAB103_3_3,Length=0.033624000,Units=km
new line.TR1290129 bus1=BMT857536B.1.2.3,bus2=BMT857557B.1.2.3,Phases=3,Linecode=CAB103_3_3,Length=0.030895000,Units=km
new line.TR1290164 bus1=BMT857557B.1.2.3,bus2=BMT857592B.1.2.3,Phases=3,Linecode=CAB103_3_3,Length=0.033624000,Units=km
new line.TR1290227 bus1=BMT857592B.1.2.3,bus2=BMT857599B.1.2.3,Phases=3,Linecode=CAB103_3_3,Length=0.008947000,Units=km
new line.TR1290248 bus1=BMT857599B.1.2.3,bus2=BMT857585B.1.2.3,Phases=3,Linecode=CAB103_3_3,Length=0.029419000,Units=km
new line.TR1290255 bus1=BMT857599B.1.2.3,bus2=BMT101961365.1.2.3,Phases=3,Linecode=CAB103_3_3,Length=0.027864000,Units=km
new line.TR1290283 bus1=BMT101961365.2,bus2=BMT857620B.2,Phases=1,Linecode=CAB002_3_1,Length=0.027466000,Units=km
new line.TR1290297 bus1=BMT857620B.2,bus2=BMT857634B.2,Phases=1,Linecode=CAB002_3_1,Length=0.027792000,Units=km
new line.TR1290325 bus1=BMT857634B.2,bus2=BMT857648B.2,Phases=1,Linecode=CAB002_3_1,Length=0.032211000,Units=km
new line.TR1290346 bus1=BMT857648B.2,bus2=BMT858915B.2,Phases=1,Linecode=CAB002_3_1,Length=0.035009000,Units=km
new line.TR1290395 bus1=BMT857690B.1.2.3,bus2=BMT863710B.1.2.3,Phases=3,Linecode=CAB103_3_3,Length=0.009490000,Units=km
new line.TR1290409 bus1=BMT857704B.1.2.3,bus2=BMT857690B.1.2.3,Phases=3,Linecode=CAB103_3_3,Length=0.033950000,Units=km
new line.TR1290416 bus1=BMT163749022.1.2.3,bus2=BMT163749023.1.2.3,Phases=3,Linecode=CAB103_3_3,Length=0.036079000,Units=km
new line.TR1290423 bus1=BMT163749022.1.2.3,bus2=BMT857704B.1.2.3,Phases=3,Linecode=CAB103_3_3,Length=0.010633000,Units=km
new line.TR1290430 bus1=BMT163749022.1.2.3,bus2=BMT857718B.1.2.3,Phases=3,Linecode=CAB103_3_3,Length=0.005833000,Units=km
new line.TR1290472 bus1=BMT163749021.1.2.3,bus2=BMT163749022.1.2.3,Phases=3,Linecode=CAB103_3_3,Length=0.017034000,Units=km
new line.TR1290486 bus1=BMT857739B.1.2.3,bus2=BMT101958768.1.2.3,Phases=3,Linecode=CAB103_3_3,Length=0.027593000,Units=km
new line.TR1290500 bus1=BMT857753B.1.2.3,bus2=BMT857739B.1.2.3,Phases=3,Linecode=CAB103_3_3,Length=0.033979000,Units=km
new line.TR1290507 bus1=BMT136413076.1.2.3,bus2=BMT863556B.1.2.3,Phases=3,Linecode=CAB103_3_3,Length=0.016406000,Units=km
new line.TR1290528 bus1=BMT857788B.1.2.3,bus2=BMT166799703.1.2.3,Phases=3,Linecode=CAB108_3_3,Length=0.014769000,Units=km
new line.TR1290542 bus1=BMT101959041.1.2.3,bus2=BMT857788B.1.2.3,Phases=3,Linecode=CAB108_3_3,Length=0.021477000,Units=km
new line.TR1290549 bus1=BMT167679220.1.2.3,bus2=BMT167679223.1.2.3,Phases=3,Linecode=CAB108_3_3,Length=0.030024000,Units=km
new line.TR1290556 bus1=BMT167679220.1.2,bus2=BMT857809B.1.2,Phases=2,Linecode=CAB103_3_2,Length=0.036901000,Units=km
new line.TR1290570 bus1=BMT857809B.1.2,bus2=BMT167679224.1.2,Phases=2,Linecode=CAB103_3_2,Length=0.030024000,Units=km
new line.TR1290612 bus1=BMT857858B.1.2.3,bus2=BMT857865B.1.2.3,Phases=3,Linecode=CAB108_3_3,Length=0.035520000,Units=km
new line.TR1290619 bus1=BMT857865B.1.2.3,bus2=BMT150685008.1.2.3,Phases=3,Linecode=CAB108_3_3,Length=0.031153000,Units=km
new line.TR1290626 bus1=BMT150685008.1.2.3,bus2=BMT857879B.1.2.3,Phases=3,Linecode=CAB108_3_3,Length=0.032257000,Units=km
new line.TR1290633 bus1=BMT150685008.2,bus2=BMT857900B.2,Phases=1,Linecode=CAB103_3_1,Length=0.033310000,Units=km
new line.TR1290640 bus1=BMT857879B.1.2.3,bus2=BMT857886B.1.2.3,Phases=3,Linecode=CAB108_3_3,Length=0.032257000,Units=km
new line.TR1290647 bus1=BMT857886B.1.2.3,bus2=BMT150685010.1.2.3,Phases=3,Linecode=CAB108_3_3,Length=0.031153000,Units=km
new line.TR1290654 bus1=BMT150685010.1.2.3,bus2=BMT857907B.1.2.3,Phases=3,Linecode=CAB108_3_3,Length=0.030157000,Units=km
new line.TR1290668 bus1=BMT857900B.2,bus2=BMT150685011.2,Phases=1,Linecode=CAB103_3_1,Length=0.035364000,Units=km
new line.TR1290675 bus1=BMT857907B.1.2.3,bus2=BMT857914B.1.2.3,Phases=3,Linecode=CAB108_3_3,Length=0.030157000,Units=km
new line.TR1290682 bus1=BMT857914B.1.2.3,bus2=BMT3720501.1.2.3,Phases=3,Linecode=CAB108_3_3,Length=0.030157000,Units=km
new line.TR1291228 bus1=BMT858201B.1.2.3,bus2=BMT858208B.1.2.3,Phases=3,Linecode=CAB103_3_3,Length=0.026408000,Units=km
new line.TR1291249 bus1=BMT858208B.1.2.3,bus2=BMT101958600.1.2.3,Phases=3,Linecode=CAB103_3_3,Length=0.029214000,Units=km
new line.TR1291270 bus1=BMT101958600.1.2.3,bus2=BMT858229B.1.2.3,Phases=3,Linecode=CAB103_3_3,Length=0.025814000,Units=km
new line.TR1291284 bus1=BMT858229B.1.2.3,bus2=BMT858236B.1.2.3,Phases=3,Linecode=CAB103_3_3,Length=0.025814000,Units=km
new line.TR1291312 bus1=BMT858236B.1.2.3,bus2=BMT858243B.1.2.3,Phases=3,Linecode=CAB103_3_3,Length=0.043749000,Units=km
new line.TR1291319 bus1=BMT858243B.1.2.3,bus2=BMT863129B.1.2.3,Phases=3,Linecode=CAB103_3_3,Length=0.036506000,Units=km
new line.TR1291382 bus1=BMT858278B.1.2.3,bus2=BMT166799705.1.2.3,Phases=3,Linecode=CAB108_3_3,Length=0.030240000,Units=km
new line.TR1291410 bus1=BMT166799705.1.2.3,bus2=BMT166799706.1.2.3,Phases=3,Linecode=CAB108_3_3,Length=0.036629000,Units=km
new line.TR1291424 bus1=BMT101959202.1.2.3,bus2=BMT101959090.1.2.3,Phases=3,Linecode=CAB108_3_3,Length=0.038023000,Units=km
new line.TR1291431 bus1=BMT101959202.1.2.3,bus2=BMT101959209.1.2.3,Phases=3,Linecode=CAB108_3_3,Length=0.000501000,Units=km
new line.TR1291438 bus1=BMT101959251.1.2.3,bus2=BMT101959258.1.2.3,Phases=3,Linecode=CAB103_3_3,Length=0.014564000,Units=km
new line.TR1291452 bus1=BMT101959216.1.2.3,bus2=BMT101959202.1.2.3,Phases=3,Linecode=CAB108_3_3,Length=0.018033000,Units=km
new line.TR1291459 bus1=BMT101959216.1.2.3,bus2=BMT101959223.1.2.3,Phases=3,Linecode=CABA08_3_3,Length=0.054392000,Units=km
new line.TR1291487 bus1=BMT101959223.1.2.3,bus2=BMT882785C.1.2.3,Phases=3,Linecode=CAB108_3_3,Length=0.008947000,Units=km
new line.TR1291508 bus1=BMT150341578.1.2.3,bus2=BMT150341579.1.2.3,Phases=3,Linecode=CAB608_3_3,Length=0.026877000,Units=km
new line.TR1291550 bus1=BMT101960623.1.2.3,bus2=BMT101960630.1.2.3,Phases=3,Linecode=CABA08_3_3,Length=0.051753000,Units=km
new line.TR1291557 bus1=BMT101960616.1.2.3,bus2=BMT101960623.1.2.3,Phases=3,Linecode=CAB108_3_3,Length=0.000501000,Units=km
...
