2024_89_CemigReconfigurationCases/1_AlimsCemig/NOG03/NOG03SegmentosBT.dss
new line.10780925 bus1=BBT1002261.1.2.3.0,bus2=BBT1002268.1.2.3.0,Phases=3,Linecode=BT518_BT518_7_3_1,Length=0.000501000,Units=km
new line.10784383 bus1=BBT989731.1.2.3.0,bus2=BBT989738.1.2.3.0,Phases=3,Linecode=BT514_BT514_7_3_1,Length=0.000501000,Units=km
new line.10802373 bus1=BBT987470.1.2.3.0,bus2=BBT987477.1.2.3.0,Phases=3,Linecode=BT514_BT514_7_3_1,Length=0.000501000,Units=km
new line.10802478 bus1=BBT1018207.1.2.3.0,bus2=BBT1018214.1.2.3.0,Phases=3,Linecode=BT514_BT514_7_3_1,Length=0.000501000,Units=km
new line.10908955 bus1=BBT3237823.1.2.3.0,bus2=BBT3237830.1.2.3.0,Phases=3,Linecode=BT810_BT810_4_3_4,Length=0.027593000,Units=km
new line.11426430 bus1=BBT3421552.1.2.3.0,bus2=BBT3421559.1.2.3.0,Phases=3,Linecode=BT513_BT518_5_3_1,Length=0.041784000,Units=km
new line.11426451 bus1=BBT3421559.1.2.3.0,bus2=BBT3421566.1.2.3.0,Phases=3,Linecode=BT513_BT518_5_3_1,Length=0.032458000,Units=km
new line.11426472 bus1=BBT3421566.1.2.3.0,bus2=BBT4726856.1.2.3.0,Phases=3,Linecode=BT513_BT518_5_3_1,Length=0.036887000,Units=km
new line.11426493 bus1=BBT3421545.1.2.3.0,bus2=BBT3421552.1.2.3.0,Phases=3,Linecode=BT513_BT518_5_3_1,Length=0.018390000,Units=km
new line.11426500 bus1=BBT3421545.1.2.3.0,bus2=BBT3421573.1.2.3.0,Phases=3,Linecode=BT514_BT508_5_3_1,Length=0.032319000,Units=km
new line.11426521 bus1=BBT3421573.1.2.3.0,bus2=BBT3421580.1.2.3.0,Phases=3,Linecode=BT518_BT518_5_3_1,Length=0.027738000,Units=km
new line.11426528 bus1=BBT3421573.1.2.3.0,bus2=BBT3421629.1.2.3.0,Phases=3,Linecode=BT514_BT508_5_3_1,Length=0.039061000,Units=km
new line.11426549 bus1=BBT3421580.1.2.3.0,bus2=BBT3421587.1.2.3.0,Phases=3,Linecode=BT518_BT518_5_3_1,Length=0.041241000,Units=km
new line.11426570 bus1=BBT3421587.1.2.3.0,bus2=BBT3421594.1.2.3.0,Phases=3,Linecode=BT518_BT518_5_3_1,Length=0.054585000,Units=km
new line.11426584 bus1=BBT3421629.1.2.3.0,bus2=BBT3421636.1.2.3.0,Phases=3,Linecode=BT514_BT508_5_3_1,Length=0.042165000,Units=km
new line.11426605 bus1=BBT3421636.1.2.3.0,bus2=BBT3421643.1.2.3.0,Phases=3,Linecode=BT513_BT508_5_3_1,Length=0.047277000,Units=km
new line.11426612 bus1=BBT3421636.1.2.3.0,bus2=BBT3421657.1.2.3.0,Phases=3,Linecode=BT513_BT509_5_3_1,Length=0.049053000,Units=km
new line.11426633 bus1=BBT3421594.1.2.3.0,bus2=BBT3421601.1.2.3.0,Phases=3,Linecode=BT505_BT505_5_3_1,Length=0.037957000,Units=km
new line.11426654 bus1=BBT3421622.1.2.3.0,bus2=BBT20595584.1.2.3.0,Phases=3,Linecode=BT518_BT518_5_3_1,Length=0.002830000,Units=km
new line.11426675 bus1=BBT3421608.1.2.3.0,bus2=BBT3421622.1.2.3.0,Phases=3,Linecode=BT505_BT505_5_3_1,Length=0.049942000,Units=km
new line.11426682 bus1=BBT3421608.1.2.3.0,bus2=BBT3421615.1.2.3.0,Phases=3,Linecode=BT505_BT505_5_3_1,Length=0.053352000,Units=km
new line.11426710 bus1=BBT3421650.1.2.3.0,bus2=BBT3421678.1.2.3.0,Phases=3,Linecode=BT513_BT508_5_3_1,Length=0.022097000,Units=km
new line.11426731 bus1=BBT3421643.1.2.3.0,bus2=BBT3421650.1.2.3.0,Phases=3,Linecode=BT513_BT508_5_3_1,Length=0.033846000,Units=km
new line.11426766 bus1=BBT3421671.1.2.3.0,bus2=BBT3421685.1.2.3.0,Phases=3,Linecode=BT513_BT508_5_3_1,Length=0.050461000,Units=km
new line.11426787 bus1=BBT3421657.1.2.3.0,bus2=BBT3421699.1.2.3.0,Phases=3,Linecode=BT513_BT508_5_3_1,Length=0.064576000,Units=km
new line.11426808 bus1=BBT3421678.1.2.3.0,bus2=BBT3421671.1.2.3.0,Phases=3,Linecode=BT513_BT508_5_3_1,Length=0.022028000,Units=km
new line.11426829 bus1=BBT3421699.1.2.3.0,bus2=BBT3421706.1.2.3.0,Phases=3,Linecode=BT513_BT508_5_3_1,Length=0.058264000,Units=km
new line.11426843 bus1=BBT3421685.1.2.3.0,bus2=BBT3421692.1.2.3.0,Phases=3,Linecode=BT513_BT508_5_3_1,Length=0.062185000,Units=km
new line.11426864 bus1=BBT3421706.1.2.3.0,bus2=BBT3421713.1.2.3.0,Phases=3,Linecode=BT513_BT508_5_3_1,Length=0.063577000,Units=km
new line.11426885 bus1=BBT3421692.1.2.3.0,bus2=BBT3421734.1.2.3.0,Phases=3,Linecode=BT513_BT508_5_3_1,Length=0.064576000,Units=km
new line.11426913 bus1=BBT3421713.1.2.3.0,bus2=BBT3421720.1.2.3.0,Phases=3,Linecode=BT513_BT508_5_3_1,Length=0.062641000,Units=km
new line.11426934 bus1=BBT3421734.1.2.3.0,bus2=BBT3421741.1.2.3.0,Phases=3,Linecode=BT513_BT508_5_3_1,Length=0.043611000,Units=km
new line.11426955 bus1=BBT3421741.1.2.3.0,bus2=BBT3421748.1.2.3.0,Phases=3,Linecode=BT518_BT518_5_3_1,Length=0.042813000,Units=km
new line.11426976 bus1=BBT3421720.1.2.3.0,bus2=BBT3421727.1.2.3.0,Phases=3,Linecode=BT513_BT508_5_3_1,Length=0.039367000,Units=km
new line.11426997 bus1=BBT3421727.1.2.3.0,bus2=BBT3421762.1.2.3.0,Phases=3,Linecode=BT518_BT518_5_3_1,Length=0.043022000,Units=km
new line.11427018 bus1=BBT3421748.1.2.3.0,bus2=BBT3421755.1.2.3.0,Phases=3,Linecode=BT518_BT518_5_3_1,Length=0.043022000,Units=km
new line.11427060 bus1=BBT3421601.1.2.3.0,bus2=BBT3421608.1.2.3.0,Phases=3,Linecode=BT505_BT505_5_3_1,Length=0.026914000,Units=km
new line.11427102 bus1=BBT3421762.1.2.3.0,bus2=BBT3421769.1.2.3.0,Phases=3,Linecode=BT518_BT518_5_3_1,Length=0.040060000,Units=km
...